10
* (null), Energy   -1000.0000000
O    -0.482562   -1.116067    0.499321    0.086769    0.004355   -0.014557
C     1.471302    0.234729   -0.019326    0.003156    0.002523   -0.007176
C    -0.004422    0.033473    0.118142    0.011342   -0.119830    0.017490
C    -1.071670    0.962039   -0.062622   -0.077670   -0.048107    0.027771
H     1.745868    1.215551    0.390568   -0.001560    0.004361   -0.000523
H     2.039225   -0.552123    0.485943   -0.012141   -0.006504   -0.019617
H     1.739570    0.253549   -1.085725    0.000587    0.014231   -0.010868
H    -1.728784    0.693136   -0.897439    0.267118    0.146581   -0.315481
H    -0.915807    2.038692    0.026751   -0.147055   -0.033807    0.222717
H    -1.525601   -0.329297    0.611557   -0.731414    1.777032   -0.098976
10
* Frequency(6) -1945.6124
O    -0.472701   -1.115572    0.497667    0.086769    0.004355   -0.014557
C     1.471661    0.235015   -0.020141    0.003156    0.002523   -0.007176
C    -0.003133    0.019855    0.120130    0.011342   -0.119830    0.017490
C    -1.080497    0.956572   -0.059466   -0.077670   -0.048107    0.027771
H     1.745691    1.216046    0.390508   -0.001560    0.004361   -0.000523
H     2.037845   -0.552862    0.483714   -0.012141   -0.006504   -0.019617
H     1.739637    0.255167   -1.086960    0.000587    0.014231   -0.010868
H    -1.698427    0.709794   -0.933292    0.267118    0.146581   -0.315481
H    -0.932519    2.034850    0.052062   -0.147055   -0.033807    0.222717
H    -1.608723   -0.127346    0.600309   -0.731414    1.777032   -0.098976
10
* Frequency(6) -1945.6124
O    -0.463909   -1.115130    0.496192    0.086769    0.004355   -0.014557
C     1.471981    0.235271   -0.020868    0.003156    0.002523   -0.007176
C    -0.001984    0.007712    0.121902    0.011342   -0.119830    0.017490
C    -1.088367    0.951697   -0.056652   -0.077670   -0.048107    0.027771
H     1.745533    1.216488    0.390455   -0.001560    0.004361   -0.000523
H     2.036615   -0.553521    0.481726   -0.012141   -0.006504   -0.019617
H     1.739697    0.256609   -1.088061    0.000587    0.014231   -0.010868
H    -1.671360    0.724647   -0.965260    0.267118    0.146581   -0.315481
H    -0.947420    2.031424    0.074630   -0.147055   -0.033807    0.222717
H    -1.682837    0.052720    0.590280   -0.731414    1.777032   -0.098976
10
* Frequency(6) -1945.6124
O    -0.457138   -1.114791    0.495056    0.086769    0.004355   -0.014557
C     1.472227    0.235468   -0.021428    0.003156    0.002523   -0.007176
C    -0.001099   -0.001638    0.123267    0.011342   -0.119830    0.017490
C    -1.094428    0.947943   -0.054485   -0.077670   -0.048107    0.027771
H     1.745411    1.216829    0.390414   -0.001560    0.004361   -0.000523
H     2.035668   -0.554029    0.480195   -0.012141   -0.006504   -0.019617
H     1.739743    0.257719   -1.088909    0.000587    0.014231   -0.010868
H    -1.650516    0.736085   -0.989878    0.267118    0.146581   -0.315481
H    -0.958896    2.028786    0.092009   -0.147055   -0.033807    0.222717
H    -1.739912    0.191388    0.582556   -0.731414    1.777032   -0.098976
10
* Frequency(6) -1945.6124
O    -0.453122   -1.114589    0.494382    0.086769    0.004355   -0.014557
C     1.472373    0.235584   -0.021760    0.003156    0.002523   -0.007176
C    -0.000574   -0.007184    0.124076    0.011342   -0.119830    0.017490
C    -1.098023    0.945717   -0.053199   -0.077670   -0.048107    0.027771
H     1.745339    1.217030    0.390390   -0.001560    0.004361   -0.000523
H     2.035106   -0.554330    0.479287   -0.012141   -0.006504   -0.019617
H     1.739770    0.258378   -1.089412    0.000587    0.014231   -0.010868
H    -1.638153    0.742869   -1.004479    0.267118    0.146581   -0.315481
H    -0.965702    2.027222    0.102317   -0.147055   -0.033807    0.222717
H    -1.773763    0.273632    0.577975   -0.731414    1.777032   -0.098976
10
* Frequency(6) -1945.6124
O    -0.452297   -1.114548    0.494244    0.086769    0.004355   -0.014557
C     1.472403    0.235608   -0.021829    0.003156    0.002523   -0.007176
C    -0.000466   -0.008324    0.124243    0.011342   -0.119830    0.017490
C    -1.098762    0.945259   -0.052935   -0.077670   -0.048107    0.027771
H     1.745324    1.217072    0.390385   -0.001560    0.004361   -0.000523
H     2.034990   -0.554392    0.479101   -0.012141   -0.006504   -0.019617
H     1.739775    0.258513   -1.089516    0.000587    0.014231   -0.010868
H    -1.635612    0.744264   -1.007480    0.267118    0.146581   -0.315481
H    -0.967101    2.026900    0.104436   -0.147055   -0.033807    0.222717
H    -1.780722    0.290540    0.577034   -0.731414    1.777032   -0.098976
10
* Frequency(6) -1945.6124
O    -0.454751   -1.114671    0.494656    0.086769    0.004355   -0.014557
C     1.472314    0.235537   -0.021626    0.003156    0.002523   -0.007176
C    -0.000787   -0.004935    0.123748    0.011342   -0.119830    0.017490
C    -1.096565    0.946620   -0.053720   -0.077670   -0.048107    0.027771
H     1.745368    1.216949    0.390400   -0.001560    0.004361   -0.000523
H     2.035334   -0.554208    0.479656   -0.012141   -0.006504   -0.019617
H     1.739759    0.258111   -1.089208    0.000587    0.014231   -0.010868
H    -1.643167    0.740118   -0.998557    0.267118    0.146581   -0.315481
H    -0.962942    2.027856    0.098136   -0.147055   -0.033807    0.222717
H    -1.760035    0.240279    0.579833   -0.731414    1.777032   -0.098976
10
* Frequency(6) -1945.6124
O    -0.460219   -1.114945    0.495573    0.086769    0.004355   -0.014557
C     1.472115    0.235378   -0.021174    0.003156    0.002523   -0.007176
C    -0.001501    0.002616    0.122646    0.011342   -0.119830    0.017490
C    -1.091670    0.949651   -0.055471   -0.077670   -0.048107    0.027771
H     1.745467    1.216674    0.390433   -0.001560    0.004361   -0.000523
H     2.036099   -0.553798    0.480892   -0.012141   -0.006504   -0.019617
H     1.739722    0.257214   -1.088524    0.000587    0.014231   -0.010868
H    -1.660000    0.730881   -0.978677    0.267118    0.146581   -0.315481
H    -0.953675    2.029987    0.084101   -0.147055   -0.033807    0.222717
H    -1.713943    0.128295    0.586070   -0.731414    1.777032   -0.098976
10
* Frequency(6) -1945.6124
O    -0.468108   -1.115341    0.496896    0.086769    0.004355   -0.014557
C     1.471828    0.235149   -0.020521    0.003156    0.002523   -0.007176
C    -0.002532    0.013511    0.121056    0.011342   -0.119830    0.017490
C    -1.084609    0.954025   -0.057995   -0.077670   -0.048107    0.027771
H     1.745608    1.216277    0.390480   -0.001560    0.004361   -0.000523
H     2.037203   -0.553207    0.482675   -0.012141   -0.006504   -0.019617
H     1.739668    0.255920   -1.087535    0.000587    0.014231   -0.010868
H    -1.684287    0.717553   -0.949993    0.267118    0.146581   -0.315481
H    -0.940304    2.033060    0.063852   -0.147055   -0.033807    0.222717
H    -1.647442   -0.033276    0.595069   -0.731414    1.777032   -0.098976
10
* Frequency(6) -1945.6124
O    -0.477564   -1.115816    0.498483    0.086769    0.004355   -0.014557
C     1.471484    0.234874   -0.019739    0.003156    0.002523   -0.007176
C    -0.003768    0.026570    0.119150    0.011342   -0.119830    0.017490
C    -1.076145    0.959267   -0.061022   -0.077670   -0.048107    0.027771
H     1.745778    1.215802    0.390537   -0.001560    0.004361   -0.000523
H     2.038526   -0.552498    0.484813   -0.012141   -0.006504   -0.019617
H     1.739604    0.254369   -1.086351    0.000587    0.014231   -0.010868
H    -1.713396    0.701580   -0.915613    0.267118    0.146581   -0.315481
H    -0.924279    2.036744    0.039581   -0.147055   -0.033807    0.222717
H    -1.567737   -0.226926    0.605855   -0.731414    1.777032   -0.098976
10
* Frequency(6) -1945.6124
O    -0.487561   -1.116318    0.500160    0.086769    0.004355   -0.014557
C     1.471120    0.234583   -0.018912    0.003156    0.002523   -0.007176
C    -0.005075    0.040376    0.117135    0.011342   -0.119830    0.017490
C    -1.067196    0.964810   -0.064221   -0.077670   -0.048107    0.027771
H     1.745958    1.215300    0.390598   -0.001560    0.004361   -0.000523
H     2.039925   -0.551748    0.487073   -0.012141   -0.006504   -0.019617
H     1.739537    0.252730   -1.085099    0.000587    0.014231   -0.010868
H    -1.744172    0.684691   -0.879265    0.267118    0.146581   -0.315481
H    -0.907336    2.040639    0.013921   -0.147055   -0.033807    0.222717
H    -1.483466   -0.431668    0.617259   -0.731414    1.777032   -0.098976
10
* Frequency(6) -1945.6124
O    -0.497016   -1.116792    0.501746    0.086769    0.004355   -0.014557
C     1.470776    0.234308   -0.018130    0.003156    0.002523   -0.007176
C    -0.006311    0.053435    0.115229    0.011342   -0.119830    0.017490
C    -1.058732    0.970052   -0.067248   -0.077670   -0.048107    0.027771
H     1.746128    1.214824    0.390655   -0.001560    0.004361   -0.000523
H     2.041248   -0.551040    0.489211   -0.012141   -0.006504   -0.019617
H     1.739473    0.251179   -1.083914    0.000587    0.014231   -0.010868
H    -1.773281    0.668718   -0.844886    0.267118    0.146581   -0.315481
H    -0.891311    2.044323   -0.010350   -0.147055   -0.033807    0.222717
H    -1.403761   -0.625318    0.628044   -0.731414    1.777032   -0.098976
10
* Frequency(6) -1945.6124
O    -0.504906   -1.117188    0.503070    0.086769    0.004355   -0.014557
C     1.470489    0.234079   -0.017478    0.003156    0.002523   -0.007176
C    -0.007342    0.064330    0.113639    0.011342   -0.119830    0.017490
C    -1.051670    0.974426   -0.069773   -0.077670   -0.048107    0.027771
H     1.746270    1.214428    0.390702   -0.001560    0.004361   -0.000523
H     2.042352   -0.550448    0.490995   -0.012141   -0.006504   -0.019617
H     1.739419    0.249885   -1.082926    0.000587    0.014231   -0.010868
H    -1.797568    0.655390   -0.816202    0.267118    0.146581   -0.315481
H    -0.877940    2.047397   -0.030599   -0.147055   -0.033807    0.222717
H    -1.337260   -0.786889    0.637043   -0.731414    1.777032   -0.098976
10
* Frequency(6) -1945.6124
O    -0.510373   -1.117463    0.503987    0.086769    0.004355   -0.014557
C     1.470290    0.233920   -0.017026    0.003156    0.002523   -0.007176
C    -0.008057    0.071881    0.112536    0.011342   -0.119830    0.017490
C    -1.046775    0.977458   -0.071523   -0.077670   -0.048107    0.027771
H     1.746368    1.214153    0.390735   -0.001560    0.004361   -0.000523
H     2.043117   -0.550038    0.492231   -0.012141   -0.006504   -0.019617
H     1.739382    0.248988   -1.082241    0.000587    0.014231   -0.010868
H    -1.814401    0.646153   -0.796321    0.267118    0.146581   -0.315481
H    -0.868673    2.049528   -0.044634   -0.147055   -0.033807    0.222717
H    -1.291168   -0.898873    0.643281   -0.731414    1.777032   -0.098976
10
* Frequency(6) -1945.6124
O    -0.512828   -1.117586    0.504399    0.086769    0.004355   -0.014557
C     1.470201    0.233849   -0.016823    0.003156    0.002523   -0.007176
C    -0.008378    0.075270    0.112042    0.011342   -0.119830    0.017490
C    -1.044578    0.978818   -0.072308   -0.077670   -0.048107    0.027771
H     1.746412    1.214030    0.390750   -0.001560    0.004361   -0.000523
H     2.043460   -0.549855    0.492786   -0.012141   -0.006504   -0.019617
H     1.739366    0.248585   -1.081934    0.000587    0.014231   -0.010868
H    -1.821956    0.642007   -0.787398    0.267118    0.146581   -0.315481
H    -0.864514    2.050484   -0.050934   -0.147055   -0.033807    0.222717
H    -1.270481   -0.949134    0.646080   -0.731414    1.777032   -0.098976
10
* Frequency(6) -1945.6124
O    -0.512002   -1.117544    0.504261    0.086769    0.004355   -0.014557
C     1.470231    0.233873   -0.016891    0.003156    0.002523   -0.007176
C    -0.008270    0.074130    0.112208    0.011342   -0.119830    0.017490
C    -1.045317    0.978361   -0.072044   -0.077670   -0.048107    0.027771
H     1.746397    1.214071    0.390745   -0.001560    0.004361   -0.000523
H     2.043345   -0.549916    0.492599   -0.012141   -0.006504   -0.019617
H     1.739371    0.248721   -1.082037    0.000587    0.014231   -0.010868
H    -1.819414    0.643402   -0.790400    0.267118    0.146581   -0.315481
H    -0.865913    2.050162   -0.048815   -0.147055   -0.033807    0.222717
H    -1.277440   -0.932226    0.645138   -0.731414    1.777032   -0.098976
10
* Frequency(6) -1945.6124
O    -0.507986   -1.117343    0.503587    0.086769    0.004355   -0.014557
C     1.470377    0.233989   -0.017223    0.003156    0.002523   -0.007176
C    -0.007745    0.068584    0.113018    0.011342   -0.119830    0.017490
C    -1.048912    0.976134   -0.070759   -0.077670   -0.048107    0.027771
H     1.746325    1.214273    0.390721   -0.001560    0.004361   -0.000523
H     2.042783   -0.550217    0.491691   -0.012141   -0.006504   -0.019617
H     1.739398    0.249379   -1.082540    0.000587    0.014231   -0.010868
H    -1.807052    0.650186   -0.805001    0.267118    0.146581   -0.315481
H    -0.872719    2.048598   -0.038507   -0.147055   -0.033807    0.222717
H    -1.311291   -0.849982    0.640558   -0.731414    1.777032   -0.098976
10
* Frequency(6) -1945.6124
O    -0.501215   -1.117003    0.502451    0.086769    0.004355   -0.014557
C     1.470623    0.234186   -0.017783    0.003156    0.002523   -0.007176
C    -0.006860    0.059233    0.114382    0.011342   -0.119830    0.017490
C    -1.054973    0.972380   -0.068592   -0.077670   -0.048107    0.027771
H     1.746203    1.214613    0.390680   -0.001560    0.004361   -0.000523
H     2.041835   -0.550725    0.490161   -0.012141   -0.006504   -0.019617
H     1.739444    0.250490   -1.083389    0.000587    0.014231   -0.010868
H    -1.786207    0.661624   -0.829619    0.267118    0.146581   -0.315481
H    -0.884194    2.045959   -0.021128   -0.147055   -0.033807    0.222717
H    -1.368366   -0.711314    0.632834   -0.731414    1.777032   -0.098976
10
* Frequency(6) -1945.6124
O    -0.492423   -1.116562    0.500976    0.086769    0.004355   -0.014557
C     1.470943    0.234442   -0.018510    0.003156    0.002523   -0.007176
C    -0.005711    0.047091    0.116155    0.011342   -0.119830    0.017490
C    -1.062843    0.967506   -0.065778   -0.077670   -0.048107    0.027771
H     1.746045    1.215055    0.390627   -0.001560    0.004361   -0.000523
H     2.040605   -0.551384    0.488173   -0.012141   -0.006504   -0.019617
H     1.739504    0.251932   -1.084490    0.000587    0.014231   -0.010868
H    -1.759140    0.676477   -0.861586    0.267118    0.146581   -0.315481
H    -0.899095    2.042534    0.001440   -0.147055   -0.033807    0.222717
H    -1.442480   -0.531247    0.622805   -0.731414    1.777032   -0.098976
10
* Frequency(6) -1945.6124
O    -0.482562   -1.116067    0.499321    0.086769    0.004355   -0.014557
C     1.471302    0.234729   -0.019326    0.003156    0.002523   -0.007176
C    -0.004422    0.033473    0.118142    0.011342   -0.119830    0.017490
C    -1.071670    0.962039   -0.062622   -0.077670   -0.048107    0.027771
H     1.745868    1.215551    0.390568   -0.001560    0.004361   -0.000523
H     2.039225   -0.552123    0.485943   -0.012141   -0.006504   -0.019617
H     1.739570    0.253549   -1.085725    0.000587    0.014231   -0.010868
H    -1.728784    0.693136   -0.897439    0.267118    0.146581   -0.315481
H    -0.915807    2.038692    0.026751   -0.147055   -0.033807    0.222717
H    -1.525601   -0.329297    0.611557   -0.731414    1.777032   -0.098976
