10
Coordinates from ORCA-job ts E -193.069992434947
  O      -0.482579     -1.115239      0.501929
  C       1.471285      0.234516     -0.019118
  C      -0.004421      0.034467      0.120637
  C      -1.071757      0.962635     -0.063130
  H       1.747831      1.214011      0.392640
  H       2.039550     -0.554140      0.482997
  H       1.737238      0.255870     -1.086025
  H      -1.727389      0.693057     -0.899187
  H      -0.916692      2.039457      0.025379
  H      -1.525947     -0.330953      0.611049
10
Coordinates from ORCA-job ts E -193.067064219401
  O      -0.505767     -1.093100      0.440622
  C       1.473477      0.237688     -0.015448
  C      -0.001623      0.047614      0.143252
  C      -1.063645      0.931096     -0.063582
  H       1.764464      1.208087      0.407744
  H       2.042431     -0.563639      0.465364
  H       1.723656      0.274065     -1.085759
  H      -1.692538      0.644547     -0.914340
  H      -0.936355      2.011447      0.026202
  H      -1.536980     -0.264124      0.663115
10
Coordinates from ORCA-job ts E -193.064932186555
  O      -0.513295     -1.080961      0.408780
  C       1.476102      0.241518     -0.014825
  C      -0.000846      0.032440      0.103947
  C      -1.080416      0.901535     -0.055861
  H       1.763056      1.204131      0.431821
  H       2.030582     -0.570108      0.460074
  H       1.737221      0.296916     -1.081569
  H      -1.687755      0.624264     -0.916019
  H      -0.928730      1.994836      0.011932
  H      -1.528799     -0.210890      0.718889
10
Coordinates from ORCA-job ts E -193.069781854911
  O      -0.487772     -1.110262      0.483484
  C       1.472378      0.235973     -0.018175
  C      -0.003680      0.034164      0.116144
  C      -1.072821      0.953715     -0.063904
  H       1.750310      1.212816      0.399545
  H       2.037452     -0.556553      0.480446
  H       1.738685      0.262721     -1.084870
  H      -1.722969      0.681663     -0.901536
  H      -0.917790      2.033465      0.021518
  H      -1.526674     -0.314024      0.634518
10
Coordinates from ORCA-job ts E -193.069979966520
  O      -0.483542     -1.114935      0.496107
  C       1.471207      0.235377     -0.018068
  C      -0.004446      0.034648      0.119981
  C      -1.071784      0.962281     -0.060730
  H       1.747755      1.213788      0.396049
  H       2.038407     -0.554734      0.482773
  H       1.737494      0.258914     -1.084897
  H      -1.731895      0.687641     -0.890894
  H      -0.911668      2.039473      0.016401
  H      -1.524409     -0.328772      0.610450
10
Coordinates from ORCA-job ts E -193.069988020832
  O      -0.482860     -1.116399      0.496807
  C       1.471309      0.235246     -0.018814
  C      -0.004409      0.032435      0.116518
  C      -1.072914      0.960674     -0.061107
  H       1.746117      1.214139      0.395331
  H       2.038161     -0.554158      0.483532
  H       1.739536      0.258353     -1.085186
  H      -1.729993      0.689808     -0.895319
  H      -0.913686      2.037911      0.020436
  H      -1.524142     -0.324329      0.614974
10
Coordinates from ORCA-job ts E -193.069984161096
  O      -0.482373     -1.116143      0.501445
  C       1.471139      0.234408     -0.020506
  C      -0.004653      0.032049      0.114901
  C      -1.072152      0.960691     -0.064168
  H       1.743962      1.215892      0.388853
  H       2.038839     -0.551382      0.486738
  H       1.741451      0.252323     -1.086420
  H      -1.724711      0.696472     -0.904440
  H      -0.918970      2.036581      0.033437
  H      -1.525414     -0.327210      0.617331
10
Coordinates from ORCA-job ts E -193.069991995399
  O      -0.482615     -1.115993      0.499551
  C       1.471278      0.234751     -0.019423
  C      -0.004470      0.033222      0.117460
  C      -1.071855      0.961804     -0.062619
  H       1.745653      1.215265      0.391297
  H       2.038988     -0.552480      0.485498
  H       1.739854      0.254373     -1.085739
  H      -1.728625      0.692991     -0.897814
  H      -0.915727      2.038435      0.026322
  H      -1.525362     -0.328687      0.612638
10
Coordinates from ORCA-job ts E -193.069992524867
  O      -0.482562     -1.116067      0.499321
  C       1.471302      0.234729     -0.019326
  C      -0.004422      0.033473      0.118142
  C      -1.071670      0.962039     -0.062622
  H       1.745868      1.215551      0.390568
  H       2.039225     -0.552123      0.485943
  H       1.739570      0.253549     -1.085725
  H      -1.728784      0.693136     -0.897439
  H      -0.915807      2.038692      0.026751
  H      -1.525601     -0.329297      0.611557
